Version 4
SHEET 1 2472 1840
WIRE -2848 -1136 -3072 -1136
WIRE -2144 -1088 -2304 -1088
WIRE -1504 -1088 -1680 -1088
WIRE -2848 -1072 -2848 -1136
WIRE -2144 -1072 -2144 -1088
WIRE -1504 -1072 -1504 -1088
WIRE -960 -1072 -1104 -1072
WIRE -3072 -1056 -3072 -1136
WIRE -2304 -1056 -2304 -1088
WIRE -1680 -1056 -1680 -1088
WIRE -1104 -1040 -1104 -1072
WIRE -1504 -912 -1504 -992
WIRE -1472 -912 -1504 -912
WIRE -2848 -896 -2848 -992
WIRE -2144 -896 -2144 -992
WIRE -1472 -896 -1472 -912
WIRE -1472 -896 -1488 -896
WIRE -960 -896 -960 -992
WIRE -2768 -848 -2912 -848
WIRE -2080 -848 -2208 -848
WIRE -1424 -848 -1552 -848
WIRE -912 -848 -1024 -848
WIRE -192 -848 -608 -848
WIRE -16 -848 -112 -848
WIRE -112 -832 -112 -848
WIRE -112 -832 -144 -832
WIRE -2912 -784 -3328 -784
WIRE -2208 -784 -2912 -784
WIRE -1552 -784 -2208 -784
WIRE -1024 -784 -1552 -784
WIRE -608 -784 -608 -848
WIRE -608 -784 -1024 -784
WIRE -144 -768 -144 -784
WIRE -16 -768 -144 -768
WIRE -3328 -736 -3328 -784
WIRE -3216 -736 -3280 -736
WIRE -3280 -720 -3280 -736
WIRE -3280 -656 -3280 -672
WIRE -3216 -656 -3280 -656
WIRE -3152 -656 -3216 -656
WIRE -3152 -624 -3152 -656
WIRE -3328 -608 -3328 -656
WIRE -2848 -608 -2928 -608
WIRE -2144 -608 -2256 -608
WIRE -1504 -608 -1600 -608
WIRE -960 -608 -1072 -608
WIRE -432 -608 -528 -608
WIRE -2256 -576 -2256 -608
WIRE -1600 -576 -1600 -608
WIRE -1072 -576 -1072 -608
WIRE -528 -576 -528 -608
WIRE -2928 -560 -2928 -608
WIRE -3328 -496 -3328 -528
WIRE -2848 -432 -2848 -528
WIRE -2144 -432 -2144 -528
WIRE -1504 -432 -1504 -528
WIRE -960 -432 -960 -528
WIRE -432 -432 -432 -528
WIRE -2816 -384 -2912 -384
WIRE -2048 -384 -2208 -384
WIRE -1408 -384 -1568 -384
WIRE -896 -384 -1024 -384
WIRE -384 -384 -496 -384
WIRE -2912 -320 -3312 -320
WIRE -2208 -320 -2912 -320
WIRE -1568 -320 -2208 -320
WIRE -1024 -320 -1568 -320
WIRE -496 -320 -1024 -320
WIRE -192 -320 -192 -768
WIRE -192 -320 -496 -320
WIRE -2208 -304 -2208 -320
WIRE -3312 -192 -3312 -320
WIRE -3152 -192 -3264 -192
WIRE -3264 -176 -3264 -192
WIRE -3264 -112 -3264 -128
WIRE -3152 -112 -3264 -112
WIRE -3056 -112 -3152 -112
WIRE -3312 -80 -3312 -112
WIRE -3056 -80 -3056 -112
WIRE -3312 32 -3312 0
FLAG -3072 -1056 0
FLAG -2304 -1056 0
FLAG -1680 -1056 0
FLAG -1104 -1040 0
FLAG -528 -576 0
FLAG -1072 -576 0
FLAG -1600 -576 0
FLAG -2256 -576 0
FLAG -2928 -560 0
FLAG -3152 -624 0
FLAG -3056 -80 0
FLAG -3312 32 0
FLAG -3328 -496 0
FLAG -2816 -384 b0
FLAG -2048 -384 b1
FLAG -1408 -384 b2
FLAG -896 -384 s1
FLAG -384 -384 c
FLAG -912 -848 s0
FLAG -1424 -848 a2
FLAG -2080 -848 a1
FLAG -2768 -848 a0
SYMBOL VTEAM_knowm -2960 -896 R0
WINDOW 39 32 28 Bottom 2
SYMATTR SpiceLine w_init=3n
SYMATTR InstName X12
SYMBOL VTEAM_knowm -2256 -896 R0
WINDOW 39 32 28 Bottom 2
SYMATTR SpiceLine w_init=3n
SYMATTR InstName X13
SYMBOL VTEAM_knowm -1600 -896 R0
WINDOW 39 32 28 Bottom 2
SYMATTR SpiceLine w_init=3n
SYMATTR InstName X14
SYMBOL VTEAM_knowm -2960 -432 R0
WINDOW 39 32 28 Bottom 2
SYMATTR SpiceLine w_init=3n
SYMATTR InstName X15
SYMBOL VTEAM_knowm -2256 -432 R0
WINDOW 39 32 28 Bottom 2
SYMATTR SpiceLine w_init=3n
SYMATTR InstName X16
SYMBOL VTEAM_knowm -1616 -432 R0
WINDOW 39 32 28 Bottom 2
SYMATTR SpiceLine w_init=3n
SYMATTR InstName X17
SYMBOL VTEAM_knowm -1072 -896 R0
WINDOW 39 32 28 Bottom 2
SYMATTR SpiceLine w_init=3n
SYMATTR InstName X18
SYMBOL VTEAM_knowm -1072 -432 R0
WINDOW 39 32 28 Bottom 2
SYMATTR SpiceLine w_init=3n
SYMATTR InstName X19
SYMBOL VTEAM_knowm -544 -432 R0
WINDOW 39 32 28 Bottom 2
SYMATTR SpiceLine w_init=3n
SYMATTR InstName X20
SYMBOL voltage -2848 -976 R180
WINDOW 0 24 96 Left 2
WINDOW 3 24 16 Invisible 2
WINDOW 123 0 0 Left 0
WINDOW 39 0 0 Left 0
SYMATTR InstName V23
SYMATTR Value PWL file="C:\Users\Pranjal\Documents\Project-ECP\Approx Adder\pwl_files\a0.csv"
SYMBOL voltage -2144 -976 R180
WINDOW 0 24 96 Left 2
WINDOW 3 24 16 Invisible 2
WINDOW 123 0 0 Left 0
WINDOW 39 0 0 Left 0
SYMATTR InstName V24
SYMATTR Value PWL file="C:\Users\Pranjal\Documents\Project-ECP\Approx Adder\pwl_files\a1.csv"
SYMBOL voltage -1504 -976 R180
WINDOW 0 24 96 Left 2
WINDOW 3 24 16 Invisible 2
WINDOW 123 0 0 Left 0
WINDOW 39 0 0 Left 0
SYMATTR InstName V25
SYMATTR Value PWL file="C:\Users\Pranjal\Documents\Project-ECP\Approx Adder\pwl_files\a2.csv"
SYMBOL voltage -960 -976 R180
WINDOW 0 24 96 Left 2
WINDOW 3 24 16 Invisible 2
WINDOW 123 0 0 Left 0
WINDOW 39 0 0 Left 0
SYMATTR InstName V26
SYMATTR Value PWL file="C:\Users\Pranjal\Documents\Project-ECP\Approx Adder\pwl_files\w0.csv"
SYMBOL voltage -960 -624 R0
WINDOW 123 0 0 Left 0
WINDOW 39 0 0 Left 0
WINDOW 3 24 96 Invisible 2
SYMATTR Value PWL file="C:\Users\Pranjal\Documents\Project-ECP\Approx Adder\pwl_files\w1.csv"
SYMATTR InstName V27
SYMBOL voltage -432 -512 R180
WINDOW 0 24 96 Left 2
WINDOW 3 24 16 Invisible 2
WINDOW 123 0 0 Left 0
WINDOW 39 0 0 Left 0
SYMATTR InstName V28
SYMATTR Value PWL file="C:\Users\Pranjal\Documents\Project-ECP\Approx Adder\pwl_files\c.csv"
SYMBOL voltage -1504 -512 R180
WINDOW 0 24 96 Left 2
WINDOW 3 24 16 Invisible 2
WINDOW 123 0 0 Left 0
WINDOW 39 0 0 Left 0
SYMATTR InstName V29
SYMATTR Value PWL file="C:\Users\Pranjal\Documents\Project-ECP\Approx Adder\pwl_files\b2.csv"
SYMBOL voltage -2144 -512 R180
WINDOW 0 24 96 Left 2
WINDOW 3 24 16 Invisible 2
WINDOW 123 0 0 Left 0
WINDOW 39 0 0 Left 0
SYMATTR InstName V30
SYMATTR Value PWL file="C:\Users\Pranjal\Documents\Project-ECP\Exact Adder\pwl_files\b1.csv"
SYMBOL voltage -2848 -512 R180
WINDOW 0 24 96 Left 2
WINDOW 3 24 16 Invisible 2
WINDOW 123 0 0 Left 0
WINDOW 39 0 0 Left 0
SYMATTR InstName V31
SYMATTR Value PWL file="C:\Users\Pranjal\Documents\Project-ECP\Approx Adder\pwl_files\b0.csv"
SYMBOL voltage -3152 -96 R180
WINDOW 0 24 96 Left 2
WINDOW 3 24 16 Invisible 2
WINDOW 123 0 0 Left 0
WINDOW 39 0 0 Left 0
SYMATTR InstName V32
SYMATTR Value PWL file="C:\Users\Pranjal\Documents\Project-ECP\Approx Adder\pwl_files\b0_sw.csv"
SYMBOL voltage -3216 -640 R180
WINDOW 0 24 96 Left 2
WINDOW 3 24 16 Invisible 2
WINDOW 123 0 0 Left 0
WINDOW 39 0 0 Left 0
SYMATTR InstName V33
SYMATTR Value PWL file="C:\Users\Pranjal\Documents\Project-ECP\Approx Adder\pwl_files\a0_sw.csv"
SYMBOL voltage -16 -752 R180
WINDOW 0 24 96 Left 2
WINDOW 3 24 16 Invisible 2
WINDOW 123 0 0 Left 0
WINDOW 39 0 0 Left 0
SYMATTR InstName V34
SYMATTR Value PWL file="C:\Users\Pranjal\Documents\Project-ECP\Approx Adder\pwl_files\w0_sw.csv"
SYMBOL sw -3328 -640 R180
SYMATTR InstName S12
SYMATTR Value MYSW
SYMBOL sw -3312 -96 R180
SYMATTR InstName S13
SYMATTR Value MYSW
SYMBOL sw -192 -752 R180
SYMATTR InstName S14
SYMATTR Value MYSW
SYMBOL res -3328 -96 R0
SYMATTR InstName R2
SYMATTR Value {R_g}
SYMBOL res -3344 -624 R0
SYMATTR InstName R3
SYMATTR Value {R_g}
TEXT -1736 232 Left 2 !.tran 3000.001u
TEXT -1736 120 Left 2 !.model MYSW SW(Ron=1n Roff=1000meg Vt=.5)
TEXT -1736 176 Left 2 !.param R_g=40k
