Version 4
SHEET 1 2472 1840
WIRE -3248 64 -3328 64
WIRE -2928 64 -2976 64
WIRE -2976 96 -2976 64
WIRE -3328 112 -3328 64
WIRE -2560 144 -2560 128
WIRE -2256 144 -2256 128
WIRE -1952 144 -1952 128
WIRE -1600 144 -1600 128
WIRE -1360 144 -1360 128
WIRE -32 144 -32 128
WIRE -1008 160 -1008 144
WIRE -688 160 -688 144
WIRE -3248 176 -3248 64
WIRE -3248 176 -3328 176
WIRE -2928 176 -2928 64
WIRE -2928 176 -2976 176
WIRE -32 464 -32 224
WIRE -3328 480 -3328 256
WIRE -2976 480 -2976 256
WIRE -2976 480 -2992 480
WIRE -2560 480 -2560 224
WIRE -2256 480 -2256 224
WIRE -1952 480 -1952 224
WIRE -1600 480 -1600 224
WIRE -1360 480 -1360 224
WIRE -1008 480 -1008 240
WIRE -688 480 -688 240
WIRE -368 480 -368 208
WIRE -64 512 -96 512
WIRE -3328 528 -3392 528
WIRE -3008 528 -3056 528
WIRE -2592 528 -2624 528
WIRE -2288 528 -2320 528
WIRE -1984 528 -2016 528
WIRE -1632 528 -1664 528
WIRE -1392 528 -1424 528
WIRE -1040 528 -1072 528
WIRE -720 528 -752 528
WIRE -400 528 -432 528
WIRE -3392 624 -3392 592
WIRE -2624 624 -2624 592
WIRE -2320 624 -2320 592
WIRE -2016 624 -2016 592
WIRE -1664 624 -1664 592
WIRE -1424 624 -1424 592
WIRE -1072 624 -1072 592
WIRE -752 624 -752 592
WIRE -432 624 -432 592
WIRE -3264 640 -3344 640
WIRE -3056 640 -3056 592
WIRE -2944 640 -3008 640
WIRE -2528 640 -2576 640
WIRE -2224 640 -2272 640
WIRE -1920 640 -1968 640
WIRE -1568 640 -1616 640
WIRE -1328 640 -1376 640
WIRE -976 640 -1024 640
WIRE -656 640 -704 640
WIRE -336 640 -384 640
WIRE -96 640 -96 576
WIRE -3008 656 -3008 640
WIRE 0 656 -48 656
WIRE -3008 720 -3008 704
WIRE -2944 720 -3008 720
WIRE -2576 720 -2576 688
WIRE -2528 720 -2576 720
WIRE -2272 720 -2272 688
WIRE -2224 720 -2272 720
WIRE -1968 720 -1968 688
WIRE -1920 720 -1968 720
WIRE -1616 720 -1616 688
WIRE -1568 720 -1616 720
WIRE -1376 720 -1376 688
WIRE -1328 720 -1376 720
WIRE -1024 720 -1024 688
WIRE -976 720 -1024 720
WIRE -704 720 -704 688
WIRE -656 720 -704 720
WIRE -384 720 -384 688
WIRE -336 720 -384 720
WIRE -3344 736 -3344 688
WIRE -3264 736 -3264 720
WIRE -3264 736 -3344 736
WIRE -2528 736 -2528 720
WIRE -2224 736 -2224 720
WIRE -1920 736 -1920 720
WIRE -1568 736 -1568 720
WIRE -1328 736 -1328 720
WIRE -976 736 -976 720
WIRE -656 736 -656 720
WIRE -336 736 -336 720
WIRE -48 736 -48 704
WIRE 0 736 -48 736
WIRE 0 752 0 736
WIRE -3392 784 -3392 704
WIRE -3056 784 -3056 720
WIRE -3056 784 -3392 784
WIRE -2624 784 -2624 704
WIRE -2624 784 -3056 784
WIRE -2320 784 -2320 704
WIRE -2320 784 -2624 784
WIRE -2016 784 -2016 704
WIRE -2016 784 -2320 784
WIRE -1664 784 -1664 704
WIRE -1664 784 -2016 784
WIRE -1424 784 -1424 704
WIRE -1424 784 -1664 784
WIRE -1072 784 -1072 704
WIRE -1072 784 -1424 784
WIRE -752 784 -752 704
WIRE -752 784 -1072 784
WIRE -432 784 -432 704
WIRE -432 784 -752 784
WIRE -96 784 -96 720
WIRE -96 784 -432 784
WIRE -752 912 -752 864
FLAG -752 912 0
FLAG -1360 128 0
FLAG -1008 144 0
FLAG -32 128 0
FLAG -688 144 0
FLAG -1392 528 b2
FLAG -400 528 s1
FLAG -1040 528 a3
FLAG -64 512 s2
FLAG -720 528 b3
FLAG -368 128 0
FLAG -336 736 0
FLAG 0 752 0
FLAG -656 736 0
FLAG -1328 736 0
FLAG -976 736 0
FLAG -1600 128 0
FLAG -1632 528 a2
FLAG -1568 736 0
FLAG -1952 128 0
FLAG -1984 528 b1
FLAG -1920 736 0
FLAG -2256 128 0
FLAG -2288 528 a1
FLAG -2224 736 0
FLAG -2560 128 0
FLAG -2592 528 c
FLAG -2528 736 0
FLAG -2976 96 0
FLAG -3328 112 0
FLAG -3328 528 a4
FLAG -3008 528 b4
SYMBOL res -768 768 R0
SYMATTR InstName R1
SYMATTR Value {R_g}
SYMBOL voltage -1360 240 R180
WINDOW 3 24 96 Invisible 2
WINDOW 123 0 0 Left 2
WINDOW 39 0 0 Left 2
SYMATTR Value PWL file=b2.csv
SYMATTR InstName V1
SYMBOL voltage -368 224 R180
WINDOW 3 24 96 Invisible 2
WINDOW 123 0 0 Left 2
WINDOW 39 0 0 Left 2
SYMATTR Value PWL file=w1.csv
SYMATTR InstName V2
SYMBOL voltage -1008 256 R180
WINDOW 3 24 96 Invisible 2
WINDOW 123 0 0 Left 2
WINDOW 39 0 0 Left 2
SYMATTR Value PWL file=a3.csv
SYMATTR InstName V3
SYMBOL voltage -32 240 R180
WINDOW 3 24 96 Invisible 2
WINDOW 123 0 0 Left 2
WINDOW 39 0 0 Left 2
SYMATTR Value PWL file=w2.csv
SYMATTR InstName V4
SYMBOL voltage -688 256 R180
WINDOW 3 24 96 Invisible 2
WINDOW 123 0 0 Left 2
WINDOW 39 0 0 Left 2
SYMATTR Value PWL file=b3.csv
SYMATTR InstName V5
SYMBOL VTEAM_knowm -1472 480 R0
WINDOW 39 -68 63 Bottom 2
SYMATTR SpiceLine w_init=3n
SYMATTR InstName X8
SYMBOL VTEAM_knowm -1120 480 R0
WINDOW 39 -58 28 Bottom 2
SYMATTR SpiceLine w_init=3n
SYMATTR InstName X1
SYMBOL VTEAM_knowm -800 480 R0
WINDOW 39 154 98 Bottom 2
SYMATTR SpiceLine w_init=3n
SYMATTR InstName X2
SYMBOL VTEAM_knowm -480 480 R0
WINDOW 39 32 28 Bottom 2
SYMATTR SpiceLine w_init=3n
SYMATTR InstName X3
SYMBOL VTEAM_knowm -144 464 R0
WINDOW 39 32 28 Bottom 2
SYMATTR SpiceLine w_init=3n
SYMATTR InstName X4
SYMBOL sw -1424 720 R180
WINDOW 0 53 37 Left 2
SYMATTR InstName S6
SYMATTR Value MYSW
SYMBOL sw -1072 720 R180
WINDOW 0 53 40 Left 2
SYMATTR InstName S7
SYMATTR Value MYSW
SYMBOL sw -752 720 R180
WINDOW 3 35 107 Left 2
SYMATTR Value MYSW
SYMATTR InstName S8
SYMBOL sw -432 720 R180
SYMATTR InstName S9
SYMATTR Value MYSW
SYMBOL voltage -1328 624 R0
WINDOW 3 -84 142 Left 2
WINDOW 123 0 0 Left 0
WINDOW 39 0 0 Left 0
SYMATTR Value PWL file=b2_sw.csv
SYMATTR InstName V10
SYMBOL voltage -976 624 R0
WINDOW 3 -85 144 Left 2
WINDOW 123 0 0 Left 0
WINDOW 39 0 0 Left 0
SYMATTR Value PWL file=a3_sw.csv
SYMATTR InstName V12
SYMBOL voltage -656 624 R0
WINDOW 3 -81 143 Left 2
WINDOW 123 0 0 Left 0
WINDOW 39 0 0 Left 0
SYMATTR Value PWL file=b3_sw.csv
SYMATTR InstName V13
SYMBOL voltage -336 624 R0
WINDOW 3 -84 144 Left 2
WINDOW 123 0 0 Left 0
WINDOW 39 0 0 Left 0
SYMATTR Value PWL file=w1_sw.csv
SYMATTR InstName V14
SYMBOL voltage 0 640 R0
WINDOW 3 21 134 Left 2
WINDOW 123 0 0 Left 0
WINDOW 39 0 0 Left 0
SYMATTR Value PWL file=w2_sw.csv
SYMATTR InstName V15
SYMBOL sw -96 736 R180
WINDOW 0 40 52 Left 2
WINDOW 3 31 79 Left 2
SYMATTR InstName S10
SYMATTR Value MYSW
SYMBOL voltage -1600 240 R180
WINDOW 3 24 96 Invisible 2
WINDOW 123 0 0 Left 2
WINDOW 39 0 0 Left 2
SYMATTR Value PWL file=a2.csv
SYMATTR InstName V6
SYMBOL VTEAM_knowm -1712 480 R0
WINDOW 39 -68 63 Bottom 2
SYMATTR SpiceLine w_init=3n
SYMATTR InstName X5
SYMBOL sw -1664 720 R180
WINDOW 0 53 37 Left 2
SYMATTR InstName S1
SYMATTR Value MYSW
SYMBOL voltage -1568 624 R0
WINDOW 3 -84 142 Left 2
WINDOW 123 0 0 Left 0
WINDOW 39 0 0 Left 0
SYMATTR Value PWL file=a2_sw.csv
SYMATTR InstName V7
SYMBOL voltage -1952 240 R180
WINDOW 3 24 96 Invisible 2
WINDOW 123 0 0 Left 2
WINDOW 39 0 0 Left 2
SYMATTR Value PWL file=b0.csv
SYMATTR InstName V8
SYMBOL VTEAM_knowm -2064 480 R0
WINDOW 39 -68 63 Bottom 2
SYMATTR SpiceLine w_init=3n
SYMATTR InstName X6
SYMBOL sw -2016 720 R180
WINDOW 0 53 37 Left 2
SYMATTR InstName S2
SYMATTR Value MYSW
SYMBOL voltage -1920 624 R0
WINDOW 3 -84 142 Left 2
WINDOW 123 0 0 Left 0
WINDOW 39 0 0 Left 0
SYMATTR Value PWL file=b0_sw.csv
SYMATTR InstName V9
SYMBOL voltage -2256 240 R180
WINDOW 3 24 96 Invisible 2
WINDOW 123 0 0 Left 2
WINDOW 39 0 0 Left 2
SYMATTR Value PWL file=a0.csv
SYMATTR InstName V11
SYMBOL VTEAM_knowm -2368 480 R0
WINDOW 39 -68 63 Bottom 2
SYMATTR SpiceLine w_init=3n
SYMATTR InstName X7
SYMBOL sw -2320 720 R180
WINDOW 0 53 37 Left 2
SYMATTR InstName S3
SYMATTR Value MYSW
SYMBOL voltage -2224 624 R0
WINDOW 3 -84 142 Left 2
WINDOW 123 0 0 Left 0
WINDOW 39 0 0 Left 0
SYMATTR Value PWL file=a0_sw.csv
SYMATTR InstName V16
SYMBOL voltage -2560 240 R180
WINDOW 3 24 96 Invisible 2
WINDOW 123 0 0 Left 2
WINDOW 39 0 0 Left 2
SYMATTR Value PWL file=c.csv
SYMATTR InstName V17
SYMBOL VTEAM_knowm -2672 480 R0
WINDOW 39 -68 63 Bottom 2
SYMATTR SpiceLine w_init=3n
SYMATTR InstName X9
SYMBOL sw -2624 720 R180
WINDOW 0 53 37 Left 2
SYMATTR InstName S4
SYMATTR Value MYSW
SYMBOL voltage -2528 624 R0
WINDOW 3 -84 142 Left 2
WINDOW 123 0 0 Left 0
WINDOW 39 0 0 Left 0
SYMATTR Value PWL file=c_sw.csv
SYMATTR InstName V18
SYMBOL VTEAM_knowm -3104 480 R0
SYMATTR InstName X10
SYMBOL VTEAM_knowm -3440 480 R0
SYMATTR InstName X11
SYMBOL voltage -2944 624 R0
WINDOW 123 0 0 Left 0
WINDOW 39 0 0 Left 0
SYMATTR InstName V19
SYMATTR Value PWL file=b3_sw.csv
SYMBOL voltage -3264 624 R0
WINDOW 123 0 0 Left 0
WINDOW 39 0 0 Left 0
SYMATTR InstName V20
SYMATTR Value PWL file=a3_sw.csv
SYMBOL voltage -3328 272 R180
WINDOW 0 24 96 Left 2
WINDOW 3 24 16 Left 2
WINDOW 123 0 0 Left 0
WINDOW 39 0 0 Left 0
SYMATTR InstName V21
SYMATTR Value PWL file=a3.csv
SYMBOL voltage -2976 272 R180
WINDOW 0 24 96 Left 2
WINDOW 3 24 16 Left 2
WINDOW 123 0 0 Left 0
WINDOW 39 0 0 Left 0
SYMATTR InstName V22
SYMATTR Value PWL file=b3.csv
SYMBOL sw -3056 736 R180
SYMATTR InstName S5
SYMATTR Value MYSW
SYMBOL sw -3392 720 R180
SYMATTR InstName S11
SYMATTR Value MYSW
TEXT -1368 1120 Left 2 !.tran 3000.001u
TEXT -1368 1040 Left 2 !.model MYSW SW(Ron=1n Roff=1000meg Vt=.5)
TEXT -1368 1080 Left 2 !.param R_g=40k
